  29
		-46.34841757
 C 		 -2.4854771489 		  0.8106818011 		 -1.5956858320
 C 		 -1.7304040107 		 -0.2880706763 		 -1.2395694527
 C 		 -1.2568891692 		 -0.4356546544 		  0.0687764822
 C 		 -1.5510471412 		  0.5516688156 		  1.0115190577
 C 		 -2.2960448287 		  1.6570978280 		  0.6435200332
 C 		 -2.7696673452 		  1.7872717995 		 -0.6528238740
 H 		 -2.8494131993 		  0.9090025199 		 -2.6074916658
 H 		 -1.4931608039 		 -1.0571510021 		 -1.9604334731
 H 		 -1.1731132893 		  0.4840083998 		  2.0190363843
 H 		 -2.5096094748 		  2.4219101016 		  1.3753469806
 H 		 -3.3567722145 		  2.6504614177 		 -0.9290987888
 C 		 -0.4482185109 		 -1.6298818752 		  0.3676397722
 C 		 -0.1768671701 		 -1.9690341255 		  1.8268684237
 H 		 -0.0001410670 		 -3.0408976482 		  1.9015593860
 H 		 -1.0305244288 		 -1.6813945158 		  2.4386096073
 C 		  1.0447070546 		 -1.2074066803 		  2.3225564212
 C 		  2.3742620038 		 -1.7983188848 		  2.0932703029
 C 		  2.6052731040 		 -2.8583886011 		  1.2140717855
 C 		  3.4555049476 		 -1.2423689047 		  2.7857983948
 C 		  3.8894768997 		 -3.3392917897 		  1.0352744770
 H 		  1.7988730899 		 -3.2867013875 		  0.6406879237
 C 		  4.7320543077 		 -1.7371671858 		  2.6131210767
 H 		  3.2641662627 		 -0.4204362233 		  3.4605035862
 C 		  4.9515655486 		 -2.7882744424 		  1.7353579854
 H 		  4.0616628675 		 -4.1516683450 		  0.3449707696
 H 		  5.5564462954 		 -1.3024900748 		  3.1583706948
 H 		  5.9498627006 		 -3.1752415079 		  1.5947088979
 O 		  0.9083621118 		 -0.1416625501 		  2.8986596949
 O 		 -0.0068814043 		 -2.3423163348 		 -0.5177741832
  29
		-46.34837096
 C 		 -2.3872223013 		  0.8739928221 		 -1.5976705963
 C 		 -1.6820450476 		 -0.2490180163 		 -1.2162154740
 C 		 -1.2316286409 		 -0.3974658541 		  0.1003512093
 C 		 -1.4989202068 		  0.6139490355 		  1.0254763799
 C 		 -2.1951948371 		  1.7423407750 		  0.6329004092
 C 		 -2.6454838557 		  1.8736593912 		 -0.6716370431
 H 		 -2.7328068583 		  0.9730561328 		 -2.6157620953
 H 		 -1.4663112817 		 -1.0369107822 		 -1.9234078038
 H 		 -1.1389350043 		  0.5454788274 		  2.0393724277
 H 		 -2.3886525946 		  2.5245485268 		  1.3517320704
 H 		 -3.1942262662 		  2.7554542924 		 -0.9673223211
 C 		 -0.4774265388 		 -1.6204944424 		  0.4249162560
 C 		 -0.1924329449 		 -1.9241486001 		  1.8894412126
 H 		 -0.0393780959 		 -2.9972993468 		  1.9929538444
 H 		 -1.0305997989 		 -1.6003351645 		  2.5045909617
 C 		  1.0531429975 		 -1.1767711531 		  2.3457545964
 C 		  2.3668339294 		 -1.7935561441 		  2.0927812193
 C 		  2.5558387169 		 -2.8870232159 		  1.2449561077
 C 		  3.4772427526 		 -1.2289753451 		  2.7301429528
 C 		  3.8270603072 		 -3.3924582651 		  1.0432132809
 H 		  1.7260150749 		 -3.3246969573 		  0.7137252608
 C 		  4.7411051695 		 -1.7470324979 		  2.5344085913
 H 		  3.3184754362 		 -0.3812288463 		  3.3809510939
 C 		  4.9183524622 		 -2.8319625060 		  1.6888111137
 H 		  3.9662283458 		 -4.2313746566 		  0.3777414069
 H 		  5.5883142854 		 -1.3048033092 		  3.0368211209
 H 		  5.9064221009 		 -3.2379082932 		  1.5306110918
 O 		  0.9485637206 		 -0.1006038235 		  2.9088578004
 O 		 -0.0882654771 		 -2.3825749172 		 -0.4434915155
  29
		-46.34817736
 C 		 -1.9686697914 		  1.0322645316 		 -1.7965402497
 C 		 -1.3062146960 		 -0.1234865598 		 -1.4372526148
 C 		 -1.1004616145 		 -0.4414115102 		 -0.0898079734
 C 		 -1.5727666847 		  0.4335796372 		  0.8910570350
 C 		 -2.2274876619 		  1.5947615390 		  0.5235132404
 C 		 -2.4317505015 		  1.8951019949 		 -0.8143816786
 H 		 -2.1223242761 		  1.2631409056 		 -2.8399452349
 H 		 -0.9337178858 		 -0.8066586213 		 -2.1867841359
 H 		 -1.4106953212 		  0.2330267612 		  1.9376166601
 H 		 -2.5823331610 		  2.2695055502 		  1.2881425348
 H 		 -2.9493085552 		  2.8014331924 		 -1.0914516581
 C 		 -0.3761588854 		 -1.6892515811 		  0.2080396757
 C 		 -0.2596575763 		 -2.1253966253 		  1.6619324318
 H 		 -0.0303321869 		 -3.1900761496 		  1.6824179790
 H 		 -1.1981247407 		 -1.9340274458 		  2.1807823935
 C 		  0.8430900539 		 -1.3465646201 		  2.3655140837
 C 		  2.2381728624 		 -1.7722301748 		  2.1579901715
 C 		  2.6200542011 		 -2.7558668160 		  1.2428977852
 C 		  3.2248591220 		 -1.1351152512 		  2.9192002732
 C 		  3.9557522459 		 -3.0828020559 		  1.0975847311
 H 		  1.8898341286 		 -3.2492091095 		  0.6222407584
 C 		  4.5548391006 		 -1.4732673471 		  2.7758677201
 H 		  2.9173489579 		 -0.3737975311 		  3.6214134811
 C 		  4.9232047198 		 -2.4502590187 		  1.8629867769
 H 		  4.2429989171 		 -3.8387003921 		  0.3820700204
 H 		  5.3047187574 		 -0.9752987877 		  3.3719517427
 H 		  5.9631879504 		 -2.7166969050 		  1.7467096751
 O 		  0.5617206885 		 -0.3992917328 		  3.0796260347
 O 		  0.1220818047 		 -2.3671604975 		 -0.6744452637
  29
		-46.34809137
 C 		 -1.9028461790 		  1.1212763187 		 -1.7147592627
 C 		 -1.2089514285 		 -0.0400273279 		 -1.4436987159
 C 		 -1.1008002097 		 -0.5207353758 		 -0.1335569327
 C 		 -1.7059867818 		  0.1961071728 		  0.9012346384
 C 		 -2.3935224599 		  1.3631990322 		  0.6232730929
 C 		 -2.4980340173 		  1.8262529243 		 -0.6792318980
 H 		 -1.9786649095 		  1.4791253900 		 -2.7305355937
 H 		 -0.7344815160 		 -0.6017425966 		 -2.2352863014
 H 		 -1.6262959626 		 -0.1323669384 		  1.9246474404
 H 		 -2.8525829972 		  1.9144636040 		  1.4302516835
 H 		 -3.0412136956 		  2.7361335385 		 -0.8869412358
 C 		 -0.3337023773 		 -1.7619376621 		  0.0702312278
 C 		 -0.2637047880 		 -2.3429314924 		  1.4754358393
 H 		  0.0492325010 		 -3.3837039749 		  1.4001889780
 H 		 -1.2427128410 		 -2.2809560855 		  1.9492684321
 C 		  0.7297562605 		 -1.5653102657 		  2.3271165168
 C 		  2.1664600644 		 -1.8329626354 		  2.1400690129
 C 		  2.6748097137 		 -2.6847461100 		  1.1567252499
 C 		  3.0591657128 		 -1.1786402779 		  2.9968045320
 C 		  4.0405127651 		 -2.8666929775 		  1.0391153878
 H 		  2.0188036973 		 -3.1879023878 		  0.4651982213
 C 		  4.4203210183 		 -1.3710661724 		  2.8788918311
 H 		  2.6540780990 		 -0.5201618093 		  3.7514955664
 C 		  4.9143046041 		 -2.2178865752 		  1.8978683039
 H 		  4.4251747974 		 -3.5216662998 		  0.2717214158
 H 		  5.0966820508 		 -0.8608721531 		  3.5481007376
 H 		  5.9789624542 		 -2.3705135878 		  1.8015822018
 O 		  0.3304741234 		 -0.7458149030 		  3.1367151709
 O 		  0.2382006445 		 -2.3206303093 		 -0.8503194574
  29
		-46.34803626
 C 		 -2.0001306667 		  0.9425427643 		 -1.7090957073
 C 		 -1.4008019349 		 -0.2319320633 		 -1.3028514024
 C 		 -1.1138128391 		 -0.4596818341 		  0.0480354900
 C 		 -1.4423412923 		  0.5238056796 		  0.9838823536
 C 		 -2.0356958198 		  1.7017724256 		  0.5686777411
 C 		 -2.3193384238 		  1.9135836769 		 -0.7716978895
 H 		 -2.2167589976 		  1.1035096143 		 -2.7544406576
 H 		 -1.1402584838 		 -0.9992514259 		 -2.0173928428
 H 		 -1.2192472811 		  0.3913122988 		  2.0299664993
 H 		 -2.2799000512 		  2.4595289406 		  1.2980693975
 H 		 -2.7872471112 		  2.8347788085 		 -1.0855724378
 C 		 -0.4637488048 		 -1.7351547082 		  0.3960574087
 C 		 -0.2132395361 		 -2.0374664664 		  1.8666772900
 H 		 -0.0188089833 		 -3.1049243507 		  1.9672285778
 H 		 -1.0896038004 		 -1.7621562413 		  2.4528225396
 C 		  0.9778404940 		 -1.2476835310 		  2.3905650577
 C 		  2.3307027851 		 -1.7039207868 		  2.0271594814
 C 		  2.5829826389 		 -2.7784962916 		  1.1712259312
 C 		  3.4131860574 		 -1.0024003649 		  2.5705658455
 C 		  3.8857714322 		 -3.1296151529 		  0.8686901170
 H 		  1.7746972117 		 -3.3301170694 		  0.7195826562
 C 		  4.7106456651 		 -1.3630371749 		  2.2703595688
 H 		  3.2053154650 		 -0.1720078200 		  3.2297117161
 C 		  4.9495827011 		 -2.4298536064 		  1.4169273409
 H 		  4.0714788503 		 -3.9573825201 		  0.2007433487
 H 		  5.5355042858 		 -0.8133133503 		  2.6981385307
 H 		  5.9635183451 		 -2.7146078882 		  1.1783849260
 O 		  0.7991336042 		 -0.2656628271 		  3.0907819565
 O 		 -0.1290376580 		 -2.5380096245 		 -0.4583151778
